envvars:
    "SPECFEM2D_BINDIR"

current_workdir = "@CMAKE_CURRENT_SOURCE_DIR@"
specfem_workdir = "@CMAKE_CURRENT_SOURCE_DIR@/specfem2d_workdir"


rule specfem2d_setup:
    input:
        provenance_dir=f"{current_workdir}/provenance",
    output:
        specfem_exec=f"{specfem_workdir}/bin/xspecfem2D",
        meshfem_exec=f"{specfem_workdir}/bin/xmeshfem2D",
        par_file=f"{specfem_workdir}/DATA/Par_file",
        source=f"{specfem_workdir}/DATA/SOURCE",
        topography=f"{specfem_workdir}/DATA/topography.dat",
    localrule: True
    shell:
        f"""
            ln -sf $SPECFEM2D_BINDIR/xspecfem2D {output.specfem_exec}
            ln -sf $SPECFEM2D_BINDIR/xmeshfem2D {output.meshfem_exec}
            cp {input.provenance_dir}/Par_file {output.par_file}
            cp {input.provenance_dir}/SOURCE {output.source}
            cp {input.provenance_dir}/topography.dat {output.topography}
        """


rule specfem2d_run:
    input:
        rules.specfem2d_setup.output
    output:
        mesher=f"{specfem_workdir}/OUTPUT_FILES/output_mesher.txt",
        solver=f"{specfem_workdir}/OUTPUT_FILES/output_solver.txt",
    shell:
        f"""
            cd {specfem_workdir}
            {specfem_workdir}/bin/xmeshfem2D > {output.mesher}
            {specfem_workdir}/bin/xspecfem2D > {output.solver}
        """


rule specfem2d_move_traces:
    input:
        solver=rules.specfem2d_run.output.solver,
    output:
        trace_list=f"{current_workdir}/traces/trace_list.txt",
    run:
        import os
        os.makedirs(f"{current_workdir}/traces", exist_ok=True)

        trace_list = []

        for trace_file in os.listdir(f"{specfem_workdir}/OUTPUT_FILES/"):
            trace_file_split = trace_file.split(".")
            if len(trace_file_split) == 4 and trace_file_split[-1].startswith("sem"):
                trace_file_out = ".".join([trace_file_split[0], trace_file_split[1], "S2", trace_file_split[2], trace_file_split[3]])
                trace_list.append(trace_file_out + "\n")
                infile = os.path.join(f"{specfem_workdir}/OUTPUT_FILES/", trace_file)
                outfile = os.path.join(f"{current_workdir}/traces/", trace_file_out)
                shell(f"mv {infile} {outfile}")

        with open(output.trace_list, "w") as f:
            f.writelines(trace_list)


rule clean:
    localrule: True
    shell:
        f"""
            rm -rf {specfem_workdir}
            rm -rf {current_workdir}/traces
        """
