# nonconformimg piggy-backs off of the conforming traces, so we skip specfem2d.smk
# this is a modified verson of meshfem2d.smk

include: "../../../specfem2d.smk"

envvars:
    "SPECFEMPP_BINDIR",
    "SPECFEMPP_SCRIPTS_DIR",

pathvars:
    cwd=os.getcwd()


# Should be the same traces as in the conforming case AcousticElasticCoupledDomain
stations = [f"S{i:04d}" for i in range(1, 11)]
components = ["BXX", "BXZ"]

traces = [
    f"traces/AA.{station}.S2.{component}.semd"
    for station in stations
    for component in components
]

rule all:
    input:
        traces=traces,
        trace_list="<cwd>/traces/trace_list.txt",
        database="<cwd>/database.bin",
    localrule: True


rule specfempp_external_mesher:
    input:
        topography="<cwd>/provenance/topography_specfempp.dat",
    output:
        external_mesh=directory("<cwd>/specfem2d_workdir/MESH"),
    shell:
        """
            python $SPECFEMPP_SCRIPTS_DIR/gmshlayerbuilder {input.topography} {output.external_mesh}
        """

rule specfempp_mesher_using_external_mesh:
    input:
        par_file="<cwd>/provenance/Par_file_specfempp",
        external_mesh_dir=directory(rules.specfempp_external_mesher.output.external_mesh),
        external_mesh=rules.specfempp_external_mesher.output.external_mesh,
        cwd="<cwd>/specfem2d_workdir",
    output:
        database="<cwd>/specfem2d_workdir/OUTPUT_FILES/database.bin",
    shell:
        """
            cd {input.external_mesh}
            $SPECFEMPP_BINDIR/xmeshfem2D -p {input.par_file}
        """

ruleorder: specfempp_mesher_using_external_mesh > specfempp_mesher

rule specfempp_move_database_external_mesh:
    input:
        database=rules.specfempp_mesher_using_external_mesh.output.database,
    output:
        database="<cwd>/database.bin",
    shell:
        """
            cp {input.database} {output.database}
        """

ruleorder: specfempp_move_database_external_mesh > specfempp_move_database

rule check_traces:
    input:
        trace_list="<cwd>/traces/trace_list.txt",
    output:
        traces=traces,
    localrule: True
